Version 4
SHEET 1 3116 1116
WIRE 1936 192 1936 176
WIRE 1936 192 1824 192
WIRE 2032 192 1936 192
WIRE 1824 208 1824 192
WIRE 2032 208 2032 192
WIRE 2688 240 2672 240
WIRE 2784 240 2768 240
WIRE 1824 304 1824 288
WIRE 2560 304 1824 304
WIRE 2672 304 2672 240
WIRE 2672 304 2640 304
WIRE 2736 304 2736 288
WIRE 1744 320 1168 320
WIRE 2672 320 2672 304
WIRE 2704 320 2672 320
WIRE 1744 336 1744 320
WIRE 2784 336 2784 240
WIRE 2784 336 2768 336
WIRE 2800 336 2784 336
WIRE 2704 352 2672 352
WIRE 1168 368 1168 320
WIRE 2032 368 2032 288
WIRE 2560 368 2032 368
WIRE 2672 368 2672 352
WIRE 2672 368 2640 368
WIRE 1824 384 1824 304
WIRE 2032 384 2032 368
WIRE 2736 384 2736 368
WIRE 1744 432 1744 416
WIRE 1760 432 1744 432
WIRE 2112 432 2096 432
WIRE 2672 432 2672 368
WIRE 1744 448 1744 432
WIRE 1168 464 1168 448
WIRE 1744 544 1744 528
WIRE 1824 544 1824 480
WIRE 1936 544 1824 544
WIRE 2032 544 2032 480
WIRE 2032 544 1936 544
WIRE 2672 544 2672 512
WIRE 1776 656 1776 640
WIRE 1776 752 1776 736
WIRE 1856 752 1776 752
WIRE 1776 768 1776 752
WIRE 1936 768 1936 544
WIRE 1856 816 1856 752
WIRE 1856 816 1840 816
WIRE 1872 816 1856 816
WIRE 1936 880 1936 864
WIRE 1776 976 1776 864
WIRE 1856 976 1776 976
WIRE 1936 976 1936 960
WIRE 1936 976 1856 976
WIRE 1856 992 1856 976
FLAG 1168 464 0
FLAG 2800 336 Vo
FLAG 1168 320 Vi
FLAG 848 -224 0
FLAG 960 -224 0
FLAG 848 -304 Vp
FLAG 960 -304 Vn
FLAG 2736 288 Vp
FLAG 2736 384 Vn
FLAG 2112 432 0
FLAG 1936 176 Vp
FLAG 1744 544 0
FLAG 2672 544 0
FLAG 1856 992 Vn
FLAG 1776 640 Vp
SYMBOL voltage 1168 352 R0
WINDOW 0 -13 56 Left 2
WINDOW 123 0 0 Left 0
WINDOW 39 0 0 Left 0
SYMATTR InstName V1
SYMATTR Value PWL(0 -15 1 15)
SYMBOL voltage 848 -320 R0
WINDOW 123 0 0 Left 0
WINDOW 39 0 0 Left 0
SYMATTR InstName V2
SYMATTR Value 15
SYMBOL voltage 960 -320 R0
WINDOW 123 0 0 Left 0
WINDOW 39 0 0 Left 0
SYMATTR InstName V3
SYMATTR Value -15
SYMBOL res 2544 320 R270
WINDOW 0 32 56 VTop 2
WINDOW 3 0 56 Invisible 2
SYMATTR InstName R4
SYMATTR Value 10k
SYMBOL res 2784 224 R90
WINDOW 0 0 56 VBottom 2
WINDOW 3 32 56 Invisible 2
SYMATTR InstName R5
SYMATTR Value 10k
SYMBOL Opamps\\LT1055 2736 272 R0
SYMATTR InstName U1
SYMBOL npn 1760 384 R0
WINDOW 3 56 68 Invisible 2
SYMATTR InstName Q1
SYMATTR Value 2N2222
SYMBOL npn 2096 384 M0
WINDOW 3 56 68 Invisible 2
SYMATTR InstName Q2
SYMATTR Value 2N2222
SYMBOL res 1808 192 R0
SYMATTR InstName R7
SYMATTR Value 1k
SYMBOL res 2016 192 R0
SYMATTR InstName R8
SYMATTR Value 1k
SYMBOL res 1760 432 R180
WINDOW 0 36 76 Left 2
WINDOW 3 36 40 Left 2
SYMATTR InstName R10
SYMATTR Value 4033.7
SYMBOL res 1760 544 R180
WINDOW 0 37 48 Left 2
WINDOW 3 36 40 Invisible 2
SYMATTR InstName R11
SYMATTR Value 220
SYMBOL res 2544 384 R270
WINDOW 0 32 56 VTop 2
WINDOW 3 0 56 Invisible 2
SYMATTR InstName R1
SYMATTR Value 10k
SYMBOL res 2656 416 R0
SYMATTR InstName R2
SYMATTR Value 10k
SYMBOL npn 1872 768 R0
WINDOW 3 56 68 Invisible 2
SYMATTR InstName Q3
SYMATTR Value 2N2222
SYMBOL npn 1840 768 M0
WINDOW 3 56 68 Invisible 2
SYMATTR InstName Q4
SYMATTR Value 2N2222
SYMBOL res 1760 640 R0
SYMATTR InstName R6
SYMATTR Value 10k
SYMBOL res 1920 864 R0
SYMATTR InstName R9
SYMATTR Value 26.1
TEXT 1624 -368 Left 2 !.include opamp.sub
TEXT 2272 -336 Left 2 ;https://wiki.analog.com/university/courses/electronics/text/chapter-7
TEXT 1616 -440 Left 2 !.step dec param R1 5k 20k 2
TEXT 1616 -416 Left 2 !.param R2 10k
TEXT 1624 -392 Left 2 !.tran 1
TEXT 1408 64 Left 2 ;Long tailed pair
TEXT 2224 64 Left 2 ;Differential  to single ended conversion
TEXT 1608 -248 Left 2 ;Constant current source adapted from:\n  Book: Microelectronic Devices and Circuits\n  Authors: Clifton G. Fonstad\n  Pages: 399-400
RECTANGLE Normal 2208 832 1408 80 2
RECTANGLE Normal 3024 832 2224 80 2
