Version 4
SHEET 1 3028 1116
WIRE 1936 192 1824 192
WIRE 2032 192 1936 192
WIRE 1824 240 1824 192
WIRE 2032 240 2032 192
WIRE 2688 240 2672 240
WIRE 2800 240 2768 240
WIRE 2560 320 2480 320
WIRE 2672 320 2672 240
WIRE 2672 320 2640 320
WIRE 2704 320 2672 320
WIRE 1824 336 1824 320
WIRE 2480 336 2480 320
WIRE 2480 336 1824 336
WIRE 2800 336 2800 240
WIRE 2800 336 2768 336
WIRE 2896 336 2800 336
WIRE 2704 352 2672 352
WIRE 2032 384 2032 320
WIRE 2160 384 2032 384
WIRE 1824 400 1824 336
WIRE 2032 400 2032 384
WIRE 2160 416 2160 384
WIRE 2560 416 2160 416
WIRE 2672 416 2672 352
WIRE 2672 416 2640 416
WIRE 848 448 704 448
WIRE 1488 448 848 448
WIRE 1696 448 1568 448
WIRE 1760 448 1696 448
WIRE 2336 448 2096 448
WIRE 2672 464 2672 416
WIRE 704 480 704 448
WIRE 1824 560 1824 496
WIRE 1936 560 1824 560
WIRE 2032 560 2032 496
WIRE 2032 560 1936 560
WIRE 704 576 704 560
WIRE 1728 608 1728 592
WIRE 1728 704 1728 688
WIRE 1808 704 1728 704
WIRE 1728 720 1728 704
WIRE 1936 720 1936 560
WIRE 1808 768 1808 704
WIRE 1808 768 1792 768
WIRE 1872 768 1808 768
WIRE 1936 832 1936 816
WIRE 1728 928 1728 816
WIRE 1840 928 1728 928
WIRE 1936 928 1936 912
WIRE 1936 928 1840 928
FLAG 704 576 0
FLAG 2896 336 Vo
FLAG 848 448 Vi
FLAG 800 256 0
FLAG 912 256 0
FLAG 800 176 Vp
FLAG 912 176 Vn
FLAG 2736 304 Vp
FLAG 2736 368 Vn
FLAG 2336 448 0
FLAG 1936 192 Vp
FLAG 1696 528 0
FLAG 2672 544 0
FLAG 1840 928 Vn
FLAG 1728 592 Vp
SYMBOL voltage 704 464 R0
WINDOW 0 -13 56 Left 2
WINDOW 123 0 0 Left 0
WINDOW 39 0 0 Left 0
SYMATTR InstName V1
SYMATTR Value PWL(0 -15 1 15)
SYMBOL voltage 800 160 R0
WINDOW 123 0 0 Left 0
WINDOW 39 0 0 Left 0
SYMATTR InstName V2
SYMATTR Value 15
SYMBOL voltage 912 160 R0
WINDOW 123 0 0 Left 0
WINDOW 39 0 0 Left 0
SYMATTR InstName V3
SYMATTR Value -15
SYMBOL res 2544 336 R270
WINDOW 0 32 56 VTop 2
WINDOW 3 0 56 VBottom 2
SYMATTR InstName R4
SYMATTR Value 10k
SYMBOL res 2784 224 R90
WINDOW 0 0 56 VBottom 2
WINDOW 3 32 56 Invisible 2
SYMATTR InstName R5
SYMATTR Value 10k
SYMBOL Opamps\\LT1055 2736 272 R0
SYMATTR InstName U1
SYMBOL npn 1760 400 R0
SYMATTR InstName Q1
SYMATTR Value 2N2222
SYMBOL npn 2096 400 M0
SYMATTR InstName Q2
SYMATTR Value 2N2222
SYMBOL res 1808 224 R0
SYMATTR InstName R7
SYMATTR Value 1k
SYMBOL res 2016 224 R0
SYMATTR InstName R8
SYMATTR Value 1k
SYMBOL res 1584 432 R90
WINDOW 0 0 56 VBottom 2
WINDOW 3 32 56 VTop 2
SYMATTR InstName R10
SYMATTR Value 4033.7
SYMBOL res 1712 544 R180
WINDOW 0 36 76 Left 2
WINDOW 3 36 40 Left 2
SYMATTR InstName R11
SYMATTR Value 220
SYMBOL res 2544 432 R270
WINDOW 0 32 56 VTop 2
WINDOW 3 0 56 VBottom 2
SYMATTR InstName R1
SYMATTR Value 10k
SYMBOL res 2656 448 R0
SYMATTR InstName R2
SYMATTR Value 10k
SYMBOL npn 1872 720 R0
SYMATTR InstName Q3
SYMATTR Value 2N2222
SYMBOL npn 1792 720 M0
SYMATTR InstName Q4
SYMATTR Value 2N2222
SYMBOL res 1712 592 R0
SYMATTR InstName R6
SYMATTR Value 10k
SYMBOL res 1920 816 R0
SYMATTR InstName R9
SYMATTR Value 26.1
TEXT 664 752 Left 2 !.include opamp.sub
TEXT 656 816 Left 2 ;https://wiki.analog.com/university/courses/electronics/text/chapter-7
TEXT 656 680 Left 2 !.step dec param R1 5k 20k 2
TEXT 656 704 Left 2 !.param R2 10k
TEXT 664 728 Left 2 !.tran 1
TEXT 1408 64 Left 2 ;Long tailed pair
TEXT 2224 64 Left 2 ;Differential  to single ended conversion
TEXT 1608 -248 Left 2 ;Constant current source adapted from:\n  Book: Microelectronic Devices and Circuits\n  Authors: Clifton G. Fonstad\n  Pages: 399-400
RECTANGLE Normal 2208 832 1408 80 2
RECTANGLE Normal 3024 832 2224 80 2
