Version 4
SHEET 1 2576 948
WIRE -336 -448 -336 -480
WIRE -336 -448 -464 -448
WIRE -368 -416 -368 -480
WIRE -368 -416 -464 -416
WIRE -400 -384 -400 -480
WIRE -400 -384 -464 -384
WIRE 672 -384 672 -480
WIRE 672 -384 608 -384
WIRE 160 -368 128 -368
WIRE 288 -368 240 -368
WIRE -336 -336 -336 -448
WIRE -288 -336 -336 -336
WIRE -64 -336 -208 -336
WIRE 64 -336 16 -336
WIRE -368 -256 -368 -416
WIRE -192 -256 -368 -256
WIRE -64 -256 -112 -256
WIRE 64 -256 64 -336
WIRE 64 -256 16 -256
WIRE 128 -256 128 -368
WIRE 128 -256 64 -256
WIRE 176 -256 128 -256
WIRE 288 -240 288 -368
WIRE 288 -240 240 -240
WIRE 336 -240 288 -240
WIRE 464 -240 416 -240
WIRE 736 -240 736 -480
WIRE 736 -240 544 -240
WIRE 176 -224 128 -224
WIRE -400 -176 -400 -384
WIRE -288 -176 -400 -176
WIRE -64 -176 -208 -176
WIRE 64 -176 64 -256
WIRE 64 -176 16 -176
WIRE 1232 -176 1200 -176
WIRE 1360 -176 1312 -176
WIRE 736 -144 736 -240
WIRE 784 -144 736 -144
WIRE 1008 -144 864 -144
WIRE 1136 -144 1088 -144
WIRE 704 -64 704 -480
WIRE 1008 -64 704 -64
WIRE 1136 -64 1136 -144
WIRE 1136 -64 1088 -64
WIRE 1200 -64 1200 -176
WIRE 1200 -64 1136 -64
WIRE 1248 -64 1200 -64
WIRE 1360 -48 1360 -176
WIRE 1360 -48 1312 -48
WIRE 1408 -48 1360 -48
WIRE 1536 -48 1488 -48
WIRE 1680 -48 1616 -48
WIRE 1248 -32 1200 -32
WIRE 160 -16 128 -16
WIRE 288 -16 240 -16
WIRE -336 16 -336 -336
WIRE -192 16 -336 16
WIRE -64 16 -112 16
WIRE 64 16 16 16
WIRE 672 16 672 -384
WIRE 784 16 672 16
WIRE 1008 16 864 16
WIRE 1136 16 1136 -64
WIRE 1136 16 1088 16
WIRE -368 96 -368 -256
WIRE -288 96 -368 96
WIRE -64 96 -208 96
WIRE 64 96 64 16
WIRE 64 96 16 96
WIRE 128 96 128 -16
WIRE 128 96 64 96
WIRE 176 96 128 96
WIRE 288 112 288 -16
WIRE 288 112 240 112
WIRE 336 112 288 112
WIRE 464 112 416 112
WIRE 704 112 704 -64
WIRE 704 112 544 112
WIRE 176 128 128 128
WIRE -400 176 -400 -176
WIRE -64 176 -400 176
WIRE 64 176 64 96
WIRE 64 176 16 176
WIRE -400 256 -400 176
WIRE -368 256 -368 96
WIRE -336 256 -336 16
WIRE 672 256 672 16
WIRE 704 256 704 112
WIRE 736 256 736 -144
WIRE 1328 368 1328 352
WIRE 1440 368 1440 352
WIRE 1328 464 1328 448
WIRE 1440 464 1440 448
WIRE 1328 576 1328 560
WIRE 1440 576 1440 560
WIRE 1552 576 1552 560
WIRE 1328 672 1328 656
WIRE 1440 672 1440 656
WIRE 1552 672 1552 656
FLAG -464 -448 X0
IOPIN -464 -448 In
FLAG -464 -416 X1
IOPIN -464 -416 In
FLAG -464 -384 B
FLAG 208 -272 V+
FLAG 208 -208 V-
FLAG 128 -224 0
FLAG 208 80 V+
FLAG 208 144 V-
FLAG 128 128 0
FLAG 608 -384 B
FLAG 1280 -80 V+
FLAG 1280 -16 V-
FLAG 1200 -32 0
FLAG 1680 -48 Y
IOPIN 1680 -48 Out
FLAG 496 -272 V+
FLAG 496 80 V+
FLAG 1568 -80 V+
FLAG 496 -208 V-
FLAG 496 144 V-
FLAG 1568 -16 V-
FLAG 1328 464 0
FLAG 1440 464 0
FLAG 1328 352 V+
FLAG 1440 352 V-
FLAG 1328 672 0
FLAG 1440 672 0
FLAG 1552 672 0
FLAG 1440 560 X0
FLAG 1552 560 X1
FLAG 1328 560 B
FLAG -160 -288 V+
FLAG -160 -224 V-
FLAG -256 64 V+
FLAG -256 128 V-
FLAG -160 -16 V+
FLAG -160 48 V-
FLAG 816 -176 V+
FLAG 816 -112 V-
FLAG 816 -16 V+
FLAG 816 48 V-
FLAG 368 -272 V+
FLAG 368 -208 V-
FLAG 368 80 V+
FLAG 368 144 V-
FLAG 1440 -80 V+
FLAG 1440 -16 V-
FLAG -256 -368 V+
FLAG -256 -304 V-
FLAG -256 -208 V+
FLAG -256 -144 V-
SYMBOL res 32 -352 R90
WINDOW 0 -14 42 Invisible 2
WINDOW 3 32 56 VTop 2
SYMATTR InstName R1
SYMATTR Value {R0_0_0}
SYMBOL res 32 -272 R90
WINDOW 0 0 56 Invisible 2
WINDOW 3 32 56 VTop 2
SYMATTR InstName R2
SYMATTR Value {R0_0_1}
SYMBOL res 32 -192 R90
WINDOW 0 0 56 Invisible 2
WINDOW 3 32 56 VTop 2
SYMATTR InstName R3
SYMATTR Value {R0_0_2}
SYMBOL res 256 -384 R90
WINDOW 0 -14 42 Invisible 2
WINDOW 3 32 56 VTop 2
SYMATTR InstName R4
SYMATTR Value {RF}
SYMBOL res 32 0 R90
WINDOW 0 -14 42 Invisible 2
WINDOW 3 32 56 VTop 2
SYMATTR InstName R5
SYMATTR Value {R0_1_0}
SYMBOL res 32 80 R90
WINDOW 0 0 56 Invisible 2
WINDOW 3 32 56 VTop 2
SYMATTR InstName R6
SYMATTR Value {R0_1_1}
SYMBOL res 32 160 R90
WINDOW 0 0 56 Invisible 2
WINDOW 3 32 56 VTop 2
SYMATTR InstName R7
SYMATTR Value {R0_1_2}
SYMBOL res 256 -32 R90
WINDOW 0 -14 42 Invisible 2
WINDOW 3 32 56 VTop 2
SYMATTR InstName R8
SYMATTR Value {RF}
SYMBOL res 1104 -160 R90
WINDOW 0 -14 42 Invisible 2
WINDOW 3 32 56 VTop 2
SYMATTR InstName R9
SYMATTR Value {R1_0_0}
SYMBOL res 1104 -80 R90
WINDOW 0 0 56 Invisible 2
WINDOW 3 32 56 VTop 2
SYMATTR InstName R10
SYMATTR Value {R1_0_1}
SYMBOL res 1104 0 R90
WINDOW 0 0 56 Invisible 2
WINDOW 3 32 56 VTop 2
SYMATTR InstName R11
SYMATTR Value {R1_0_2}
SYMBOL res 1328 -192 R90
WINDOW 0 -14 42 Invisible 2
WINDOW 3 32 56 VTop 2
SYMATTR InstName R12
SYMATTR Value {RF}
SYMBOL tanh 496 -304 R0
WINDOW 0 48 32 Left 2
SYMATTR InstName X1
SYMBOL tanh 496 48 R0
WINDOW 0 32 16 Left 2
SYMATTR InstName X2
SYMBOL tanh 1568 -112 R0
WINDOW 0 48 32 Left 2
SYMATTR InstName X3
SYMBOL voltage 1328 352 R0
WINDOW 123 0 0 Left 0
WINDOW 39 0 0 Left 0
SYMATTR InstName V1
SYMATTR Value 15
SYMBOL voltage 1440 352 R0
WINDOW 123 0 0 Left 0
WINDOW 39 0 0 Left 0
SYMATTR InstName V2
SYMATTR Value -15
SYMBOL Opamps\\LT1055 208 -304 R0
SYMATTR InstName U1
SYMBOL Opamps\\LT1055 208 48 R0
SYMATTR InstName U2
SYMBOL Opamps\\LT1055 1280 -112 R0
SYMATTR InstName U3
SYMBOL voltage 1328 560 R0
WINDOW 123 0 0 Left 0
WINDOW 39 0 0 Left 0
SYMATTR InstName V3
SYMATTR Value 1
SYMBOL voltage 1440 560 R0
WINDOW 123 0 0 Left 0
WINDOW 39 0 0 Left 0
SYMATTR InstName V4
SYMATTR Value {X0}
SYMBOL voltage 1552 560 R0
WINDOW 123 0 0 Left 0
WINDOW 39 0 0 Left 0
SYMATTR InstName V5
SYMATTR Value {X1}
SYMBOL inverter -160 -320 R0
SYMATTR InstName X4
SYMBOL inverter -256 32 R0
SYMATTR InstName X5
SYMBOL inverter -160 -48 R0
SYMATTR InstName X6
SYMBOL inverter 816 -208 R0
SYMATTR InstName X7
SYMBOL inverter 816 -48 R0
SYMATTR InstName X8
SYMBOL inverter 368 -304 R0
SYMATTR InstName X9
SYMBOL inverter 368 48 R0
SYMATTR InstName X10
SYMBOL inverter 1440 -112 R0
SYMATTR InstName X11
SYMBOL inverter -256 -400 R0
SYMATTR InstName X12
SYMBOL inverter -256 -240 R0
SYMATTR InstName X13
TEXT 352 464 Left 2 !.param RF 1k
TEXT 672 464 Left 2 !.param R0_0_0 = ({RF} / {W0_0_0})
TEXT 672 488 Left 2 !.param R0_0_1 = ({RF} / {W0_0_1})
TEXT 672 512 Left 2 !.param R0_0_2 = ({RF} / {W0_0_2})
TEXT 672 552 Left 2 !.param R0_1_0 = ({RF} / {W0_1_0})
TEXT 672 576 Left 2 !.param R0_1_1 = ({RF} / {W0_1_1})
TEXT 672 600 Left 2 !.param R0_1_2 = ({RF} / {W0_1_2})
TEXT 672 640 Left 2 !.param R1_0_0 = ({RF} / {W1_0_0})
TEXT 672 664 Left 2 !.param R1_0_1 = ({RF} / {W1_0_1})
TEXT 672 688 Left 2 !.param R1_0_2 = ({RF} / {W1_0_2})
TEXT -48 464 Left 2 !.param W0_0_0 = 1.4473087
TEXT -48 488 Left 2 !.param W0_0_1 = 1.4470474
TEXT -48 512 Left 2 !.param W0_0_2 = 1.2659273
TEXT -48 552 Left 2 !.param W0_1_0 = 1.6303953
TEXT -48 576 Left 2 !.param W0_1_1 = 1.6299497
TEXT -48 600 Left 2 !.param W0_1_2 = 1.474662
TEXT -48 640 Left 2 !.param W1_0_0 = 2.3368418
TEXT -48 664 Left 2 !.param W1_0_1 = 2.3172097
TEXT -48 688 Left 2 !.param W1_0_2 = 2.0349612
TEXT -400 464 Left 2 !.include opamp.sub
TEXT -400 576 Left 2 !.step param X0 -1.5 1.5 0.1\n.step param X1 -1.5 1.5 0.1
TEXT -400 544 Left 2 !.op
TEXT 352 432 Left 2 ;Constant parameters:
TEXT 672 432 Left 2 ;Derived parameters:
TEXT -48 432 Left 2 ;Input parameters:
TEXT -400 512 Left 2 ;Simulation options:
TEXT -400 432 Left 2 ;Includes:
