Version 4
SHEET 1 880 680
WIRE 112 16 112 0
WIRE 80 48 0 48
WIRE 256 48 160 48
WIRE 112 96 112 80
WIRE -80 352 -80 336
WIRE 48 352 48 336
WIRE 176 352 176 336
WIRE -80 448 -80 432
WIRE 48 448 48 432
WIRE 176 448 176 432
FLAG 176 448 0
FLAG -80 448 0
FLAG 48 448 0
FLAG -80 336 Vp
FLAG 48 336 Vn
FLAG 112 0 Vp
FLAG 112 96 Vn
FLAG 256 48 Vo
FLAG 176 336 Vin
FLAG 0 48 Vin
SYMBOL voltage 176 336 R0
WINDOW 0 -13 56 Left 2
WINDOW 123 0 0 Left 0
WINDOW 39 0 0 Left 0
SYMATTR InstName V1
SYMATTR Value PWL(0 -10 1 10)
SYMBOL voltage -80 336 R0
WINDOW 123 0 0 Left 0
WINDOW 39 0 0 Left 0
SYMATTR InstName V2
SYMATTR Value 15
SYMBOL voltage 48 336 R0
WINDOW 123 0 0 Left 0
WINDOW 39 0 0 Left 0
SYMATTR InstName V3
SYMATTR Value -15
SYMBOL inverter 112 -16 R0
SYMATTR InstName X1
TEXT 520 416 Left 2 !.include opamp.sub
TEXT 520 392 Left 2 !.tran 1
